  
       XFOIL         Version 6.99
  
 Calculated polar for: E423                                            
  
 1 1 Reynolds number fixed          Mach number fixed         
  
 xtrf =   1.000 (top)        1.000 (bottom)  
 Mach =   0.000     Re =     0.200 e 6     Ncrit =   9.000  9.000
  
   alpha    CL        CD       CDp       CM     Top_Xtr  Bot_Xtr  Top_Itr  Bot_Itr
  ------ -------- --------- --------- -------- -------- -------- -------- --------
 -14.800   0.0000   0.16285   0.14123  -0.0838   0.9636   0.0256   4.5748  97.0590
 -14.700   0.0058   0.16153   0.14001  -0.0849   0.9625   0.0257   4.6646  97.1000
 -14.600   0.0115   0.16025   0.13875  -0.0861   0.9617   0.0259   4.7406  97.1479
 -14.500   0.0172   0.15898   0.13744  -0.0874   0.9609   0.0261   4.8088  97.2020
 -14.400   0.0229   0.15770   0.13610  -0.0886   0.9602   0.0263   4.8691  97.2617
 -14.300   0.0288   0.15640   0.13472  -0.0900   0.9596   0.0265   4.9232  97.3266
 -14.200   0.0347   0.15508   0.13330  -0.0913   0.9590   0.0267   4.9719  97.3965
 -14.000   0.0409   0.15281   0.13102  -0.0922   0.9520   0.0271   5.5658  97.5266
 -13.900   0.0462   0.15151   0.12963  -0.0934   0.9508   0.0274   5.6741  97.6047
 -13.800   0.0517   0.15018   0.12819  -0.0946   0.9497   0.0277   5.7627  97.6861
 -13.700   0.0572   0.14882   0.12671  -0.0959   0.9488   0.0280   5.8380  97.7687
 -13.600   0.0629   0.14745   0.12517  -0.0973   0.9480   0.0282   5.9040  97.8466
 -13.500   0.0683   0.14608   0.12354  -0.0988   0.9473   0.0284   5.9629  97.9137
 -13.300   0.0713   0.14421   0.12088  -0.1000   0.9396   0.0287   6.5764  97.9896
 -13.200   0.0769   0.14270   0.11952  -0.1012   0.9382   0.0288   6.6915  98.0186
 -13.100   0.0844   0.14101   0.11833  -0.1021   0.9370   0.0290   6.7879  98.0653
 -13.000   0.0914   0.13952   0.11710  -0.1033   0.9359   0.0292   6.8704  98.1284
 -12.900   0.0983   0.13808   0.11578  -0.1045   0.9350   0.0295   6.9422  98.2040
 -12.700   0.1058   0.13582   0.11365  -0.1054   0.9274   0.0300   7.5099  98.3495
 -12.600   0.1115   0.13447   0.11231  -0.1065   0.9256   0.0303   7.6439  98.4332
 -12.500   0.1175   0.13306   0.11091  -0.1077   0.9241   0.0306   7.7534  98.5161
 -12.400   0.1237   0.13163   0.10946  -0.1089   0.9228   0.0309   7.8461  98.5969
 -12.300   0.1300   0.13017   0.10799  -0.1102   0.9217   0.0311   7.9269  98.6797
 -12.200   0.1363   0.12869   0.10648  -0.1116   0.9207   0.0314   7.9983  98.7635
 -12.000   0.1431   0.12639   0.10404  -0.1127   0.9125   0.0319   8.5541  98.8900
 -11.900   0.1485   0.12500   0.10246  -0.1141   0.9107   0.0321   8.6766  98.9386
 -11.800   0.1539   0.12364   0.10083  -0.1158   0.9093   0.0322   8.7766  98.9705
 -11.700   0.1593   0.12233   0.09919  -0.1176   0.9080   0.0323   8.8599  98.9915
 -11.600   0.1669   0.12062   0.09767  -0.1192   0.9069   0.0323   8.9338  99.0141
 -11.500   0.1764   0.11873   0.09637  -0.1204   0.9055   0.0325   9.0277  99.0547
 -11.400   0.1819   0.11743   0.09538  -0.1209   0.9009   0.0327   9.3192  99.0991
 -11.300   0.1898   0.11591   0.09409  -0.1222   0.8984   0.0329   9.4748  99.1592
 -11.200   0.1984   0.11433   0.09267  -0.1238   0.8965   0.0332   9.5962  99.2314
 -11.100   0.2074   0.11271   0.09117  -0.1257   0.8948   0.0335   9.7015  99.3141
 -11.000   0.2170   0.11104   0.08959  -0.1277   0.8933   0.0338   9.7961  99.4070
 -10.900   0.2270   0.10932   0.08795  -0.1299   0.8920   0.0342   9.8839  99.5097
 -10.800   0.2375   0.10756   0.08625  -0.1323   0.8906   0.0346   9.9685  99.6223
 -10.700   0.2459   0.10600   0.08472  -0.1342   0.8874   0.0351  10.1637  99.7310
 -10.600   0.2548   0.10439   0.08309  -0.1364   0.8842   0.0355  10.3520  99.8405
 -10.500   0.2644   0.10272   0.08122  -0.1391   0.8816   0.0358  10.5045  99.9290
 -10.400   0.2740   0.10110   0.07923  -0.1424   0.8794   0.0360  10.6379  99.9783
 -10.200   0.3010   0.09691   0.07577  -0.1482   0.8754   0.0364  10.8736 100.0676
 -10.100   0.3158   0.09490   0.07416  -0.1510   0.8733   0.0367  10.9961 100.1515
 -10.000   0.3255   0.09344   0.07291  -0.1528   0.8684   0.0370  11.2757 100.2381
  -9.900   0.3369   0.09184   0.07146  -0.1551   0.8643   0.0375  11.5066 100.3463
  -9.800   0.3490   0.09016   0.06989  -0.1578   0.8607   0.0380  11.7118 100.4744
  -9.700   0.3613   0.08846   0.06826  -0.1606   0.8574   0.0386  11.9004 100.6203
  -9.600   0.3704   0.08705   0.06688  -0.1626   0.8529   0.0392  12.1500 100.7603
  -9.500   0.3766   0.08589   0.06565  -0.1641   0.8474   0.0397  12.4482 100.8809
  -9.400   0.3826   0.08475   0.06421  -0.1663   0.8427   0.0400  12.7053 100.9604
  -9.300   0.3876   0.08380   0.06281  -0.1689   0.8385   0.0401  12.9323 100.9974
  -9.200   0.3961   0.08225   0.06196  -0.1692   0.8340   0.0403  13.1740 101.0345
  -9.100   0.4027   0.08105   0.06127  -0.1694   0.8291   0.0405  13.4370 101.0859
  -9.000   0.4101   0.07992   0.06045  -0.1701   0.8247   0.0408  13.6653 101.1567
  -8.900   0.4179   0.07880   0.05953  -0.1711   0.8210   0.0412  13.8662 101.2465
  -8.800   0.4244   0.07778   0.05866  -0.1719   0.8172   0.0417  14.0641 101.3461
  -8.700   0.4264   0.07710   0.05814  -0.1717   0.8123   0.0420  14.3199 101.4321
  -8.600   0.4300   0.07628   0.05745  -0.1719   0.8079   0.0425  14.5450 101.5366
  -8.500   0.4345   0.07538   0.05664  -0.1724   0.8042   0.0430  14.7399 101.6603
  -8.400   0.4395   0.07441   0.05569  -0.1733   0.8009   0.0437  14.9092 101.8022
  -8.300   0.4413   0.07369   0.05485  -0.1739   0.7974   0.0441  15.0941 101.9142
  -8.200   0.4390   0.07330   0.05429  -0.1738   0.7930   0.0444  15.3166 101.9661
  -8.100   0.4362   0.07299   0.05374  -0.1741   0.7890   0.0445  15.5235 101.9941
  -8.000   0.4428   0.07166   0.05302  -0.1740   0.7860   0.0447  15.6779 102.0300
  -7.900   0.4510   0.07041   0.05234  -0.1741   0.7833   0.0449  15.8162 102.0873
  -7.800   0.4582   0.06938   0.05164  -0.1746   0.7808   0.0453  15.9448 102.1637
  -7.700   0.4620   0.06862   0.05111  -0.1745   0.7779   0.0457  16.0924 102.2435
  -7.600   0.4639   0.06798   0.05069  -0.1740   0.7746   0.0461  16.2576 102.3252
  -7.500   0.4663   0.06730   0.05018  -0.1738   0.7716   0.0465  16.4142 102.4214
  -7.400   0.4689   0.06658   0.04963  -0.1737   0.7687   0.0470  16.5595 102.5326
  -7.300   0.4717   0.06583   0.04901  -0.1738   0.7661   0.0477  16.6931 102.6609
  -7.200   0.4743   0.06506   0.04829  -0.1741   0.7637   0.0484  16.8163 102.8098
  -7.100   0.4745   0.06444   0.04749  -0.1749   0.7613   0.0490  16.9364 102.9365
  -7.000   0.4704   0.06415   0.04699  -0.1752   0.7586   0.0492  17.0720 102.9821
  -6.800   0.4775   0.06957   0.05685  -0.1823   0.7681   0.0488  16.5909 102.8927
  -6.700   0.4735   0.06928   0.05609  -0.1826   0.7650   0.0491  16.7480 102.9661
  -6.600   0.4678   0.06912   0.05551  -0.1829   0.7621   0.0492  16.8949 102.9953
  -6.500   0.4823   0.06750   0.05459  -0.1834   0.7604   0.0495  16.9820 103.0494
  -6.400   0.4872   0.06671   0.05420  -0.1827   0.7579   0.0498  17.1086 103.1030
  -6.300   0.4897   0.06611   0.05385  -0.1819   0.7551   0.0501  17.2491 103.1636
  -6.200   0.4920   0.06555   0.05345  -0.1812   0.7524   0.0505  17.3883 103.2376
  -6.100   0.4941   0.06500   0.05301  -0.1808   0.7498   0.0509  17.5215 103.3252
  -6.000   0.4961   0.06445   0.05253  -0.1804   0.7473   0.0515  17.6461 103.4266
  -5.900   0.4978   0.06391   0.05202  -0.1801   0.7450   0.0520  17.7612 103.5423
  -5.800   0.4998   0.06337   0.05146  -0.1802   0.7429   0.0528  17.8674 103.6807
  -5.700   0.5020   0.06277   0.05062  -0.1812   0.7409   0.0537  17.9704 103.8661
  -5.600   0.4974   0.06247   0.04982  -0.1826   0.7383   0.0542  18.1006 103.9677
  -5.500   0.4956   0.06185   0.04894  -0.1841   0.7357   0.0544  18.2316 104.0075
  -5.400   0.5004   0.06100   0.04875  -0.1823   0.7338   0.0546  18.3311 104.0422
  -5.300   0.5055   0.06023   0.04843  -0.1812   0.7318   0.0549  18.4309 104.0941
  -5.200   0.5104   0.05956   0.04803  -0.1807   0.7298   0.0553  18.5301 104.1655
  -5.100   0.5154   0.05892   0.04754  -0.1805   0.7279   0.0559  18.6269 104.2585
  -5.000   0.5205   0.05825   0.04695  -0.1808   0.7261   0.0565  18.7199 104.3758
  -4.900   0.5261   0.05753   0.04627  -0.1814   0.7243   0.0573  18.8085 104.5247
  -4.800   0.5324   0.05672   0.04539  -0.1827   0.7226   0.0585  18.8941 104.7355
  -4.700   0.5431   0.05504   0.04264  -0.1910   0.7207   0.0601  18.9926 105.0117
  -4.600   0.5446   0.05448   0.04265  -0.1890   0.7189   0.0603  19.0852 105.0415
  -4.500   0.5466   0.05396   0.04256  -0.1873   0.7169   0.0605  19.1844 105.0834
  -4.400   0.5499   0.05342   0.04233  -0.1862   0.7149   0.0609  19.2849 105.1452
  -4.300   0.5543   0.05286   0.04196  -0.1856   0.7130   0.0614  19.3840 105.2344
  -4.200   0.5599   0.05223   0.04145  -0.1856   0.7111   0.0623  19.4795 105.3675
  -4.100   0.5669   0.05150   0.04073  -0.1865   0.7093   0.0638  19.5706 105.6256
  -4.000   0.5839   0.04932   0.03797  -0.1943   0.7074   0.0665  19.6642 106.0468
  -3.900   0.5865   0.04917   0.03843  -0.1915   0.7060   0.0672  19.7356 106.1549
  -3.800   0.5932   0.04881   0.03827  -0.1906   0.7046   0.0687  19.8060 106.3759
  -3.600   0.6239   0.04591   0.03511  -0.1989   0.7018   0.0737  19.9468 107.1066
  -3.500   0.6309   0.04543   0.03489  -0.1983   0.7005   0.0744  20.0157 107.1999
  -3.400   0.6352   0.04490   0.03452  -0.1978   0.6988   0.0751  20.1011 107.2956
  -3.300   0.6417   0.04424   0.03394  -0.1980   0.6970   0.0761  20.1915 107.4368
  -3.200   0.6532   0.04319   0.03282  -0.2001   0.6952   0.0783  20.2843 107.7256
  -3.000   0.6874   0.03837   0.02815  -0.2086   0.6918   0.0684  20.4553 106.3341
  -2.800   0.7908   0.01948   0.00804  -0.2393   0.6897   0.0614  20.5631 105.2281
  -2.700   0.8025   0.01934   0.00789  -0.2394   0.6881   0.0640  20.6411 105.6514
  -2.600   0.8151   0.01907   0.00756  -0.2397   0.6867   0.0671  20.7135 106.1445
  -2.500   0.8271   0.01906   0.00758  -0.2399   0.6853   0.0705  20.7822 106.6440
  -2.400   0.8397   0.01897   0.00748  -0.2403   0.6841   0.0746  20.8456 107.2336
  -2.300   0.8527   0.01899   0.00735  -0.2406   0.6829   0.0800  20.9069 107.9613
  -2.200   0.8651   0.01908   0.00757  -0.2409   0.6817   0.0841  20.9683 108.4685
  -2.100   0.8762   0.01901   0.00741  -0.2410   0.6803   0.0896  21.0365 109.1194
  -2.000   0.8844   0.01907   0.00758  -0.2404   0.6788   0.0932  21.1166 109.5074
  -1.900   0.8939   0.01899   0.00740  -0.2401   0.6771   0.0984  21.2000 110.0668
  -1.800   0.9029   0.01905   0.00760  -0.2397   0.6754   0.1017  21.2858 110.3880
  -1.700   0.9130   0.01906   0.00752  -0.2395   0.6738   0.1063  21.3703 110.8434
  -1.600   0.9233   0.01902   0.00753  -0.2394   0.6722   0.1101  21.4524 111.1881
  -1.500   0.9337   0.01912   0.00766  -0.2392   0.6706   0.1139  21.5318 111.5176
  -1.400   0.9451   0.01917   0.00753  -0.2392   0.6691   0.1191  21.6065 111.9660
  -1.300   0.9559   0.01922   0.00774  -0.2392   0.6678   0.1232  21.6766 112.2799
  -1.200   0.9673   0.01937   0.00786  -0.2393   0.6665   0.1281  21.7422 112.6641
  -1.100   0.9797   0.01939   0.00775  -0.2395   0.6653   0.1336  21.8025 113.0720
  -1.000   0.9915   0.01944   0.00790  -0.2397   0.6642   0.1372  21.8606 113.3229
  -0.900   1.0042   0.01949   0.00786  -0.2400   0.6630   0.1412  21.9181 113.5975
  -0.800   1.0176   0.01951   0.00766  -0.2404   0.6619   0.1455  21.9766 113.8986
  -0.700   1.0274   0.01945   0.00762  -0.2402   0.6605   0.1488  22.0450 114.1114
  -0.600   1.0350   0.01946   0.00773  -0.2396   0.6590   0.1514  22.1247 114.2774
  -0.500   1.0433   0.01951   0.00778  -0.2391   0.6574   0.1546  22.2083 114.4778
  -0.400   1.0523   0.01953   0.00775  -0.2387   0.6557   0.1585  22.2922 114.7244
  -0.300   1.0621   0.01957   0.00764  -0.2384   0.6541   0.1625  22.3742 114.9760
  -0.200   1.0719   0.01948   0.00767  -0.2382   0.6526   0.1660  22.4522 115.1857
  -0.100   1.0822   0.01950   0.00771  -0.2381   0.6512   0.1697  22.5264 115.4016
   0.000   1.0930   0.01953   0.00768  -0.2380   0.6498   0.1743  22.5956 115.6712
   0.100   1.1045   0.01956   0.00757  -0.2380   0.6485   0.1791  22.6598 115.9551
   0.200   1.1160   0.01949   0.00757  -0.2382   0.6474   0.1834  22.7209 116.1944
   0.300   1.1278   0.01951   0.00758  -0.2384   0.6462   0.1878  22.7806 116.4412
   0.400   1.1402   0.01954   0.00752  -0.2386   0.6451   0.1931  22.8388 116.7389
   0.500   1.1531   0.01958   0.00740  -0.2389   0.6439   0.1982  22.8959 117.0231
   0.600   1.1660   0.01957   0.00743  -0.2394   0.6428   0.2030  22.9532 117.2813
   0.700   1.1777   0.01968   0.00745  -0.2395   0.6416   0.2080  23.0165 117.5509
   0.800   1.1842   0.01976   0.00753  -0.2387   0.6401   0.2123  23.0959 117.7879
   0.900   1.1916   0.01986   0.00756  -0.2380   0.6384   0.2165  23.1798 118.0108
   1.000   1.1996   0.01986   0.00767  -0.2374   0.6368   0.2206  23.2628 118.2291
   1.100   1.2082   0.01992   0.00775  -0.2370   0.6353   0.2249  23.3431 118.4619
   1.200   1.2174   0.02000   0.00778  -0.2367   0.6338   0.2300  23.4186 118.7310
   1.300   1.2272   0.02009   0.00777  -0.2364   0.6324   0.2349  23.4904 118.9894
   1.400   1.2372   0.02007   0.00783  -0.2363   0.6311   0.2395  23.5599 119.2321
   1.500   1.2479   0.02010   0.00785  -0.2362   0.6298   0.2445  23.6274 119.4972
   1.600   1.2592   0.02014   0.00782  -0.2363   0.6285   0.2502  23.6923 119.7963
   1.700   1.2710   0.02015   0.00778  -0.2364   0.6273   0.2554  23.7545 120.0735
   1.800   1.2832   0.02014   0.00778  -0.2367   0.6262   0.2607  23.8143 120.3518
   1.900   1.2959   0.02017   0.00774  -0.2370   0.6250   0.2669  23.8721 120.6741
   2.100   1.3224   0.02030   0.00770  -0.2380   0.6228   0.2790  23.9863 121.3111
   2.200   1.3296   0.02041   0.00781  -0.2373   0.6214   0.2843  24.0587 121.5881
   2.300   1.3356   0.02054   0.00793  -0.2363   0.6199   0.2897  24.1392 121.8702
   2.400   1.3423   0.02064   0.00806  -0.2356   0.6183   0.2948  24.2212 122.1405
   2.500   1.3497   0.02073   0.00817  -0.2349   0.6167   0.3004  24.3039 122.4347
   2.600   1.3579   0.02082   0.00824  -0.2344   0.6152   0.3072  24.3853 122.7889
   2.700   1.3668   0.02088   0.00829  -0.2341   0.6136   0.3141  24.4642 123.1502
   2.800   1.3764   0.02093   0.00833  -0.2338   0.6122   0.3218  24.5398 123.5559
   2.900   1.3867   0.02098   0.00834  -0.2337   0.6108   0.3309  24.6117 124.0356
   3.000   1.3976   0.02098   0.00835  -0.2337   0.6095   0.3403  24.6793 124.5358
   3.100   1.4093   0.02099   0.00834  -0.2339   0.6083   0.3520  24.7425 125.1550
   3.200   1.4216   0.02100   0.00832  -0.2341   0.6072   0.3663  24.8016 125.9087
   3.300   1.4343   0.02100   0.00831  -0.2345   0.6061   0.3840  24.8570 126.8466
   3.400   1.4476   0.02100   0.00831  -0.2350   0.6051   0.4099  24.9105 128.2046
   3.500   1.4613   0.02096   0.00833  -0.2357   0.6040   0.4719  24.9649 131.3933
   3.800   1.4754   0.02086   0.00871  -0.2320   0.5994   1.0000  25.2079 160.0000
   3.900   1.4816   0.02103   0.00883  -0.2311   0.5976   1.0000  25.3004 160.0000
   4.000   1.4889   0.02118   0.00891  -0.2305   0.5960   1.0000  25.3888 160.0000
   4.100   1.4973   0.02131   0.00897  -0.2300   0.5944   1.0000  25.4714 160.0000
   4.200   1.5065   0.02142   0.00901  -0.2297   0.5929   1.0000  25.5479 160.0000
   4.300   1.5164   0.02152   0.00903  -0.2295   0.5916   1.0000  25.6192 160.0000
   4.400   1.5270   0.02161   0.00904  -0.2294   0.5903   1.0000  25.6861 160.0000
   4.500   1.5386   0.02168   0.00902  -0.2296   0.5891   1.0000  25.7498 160.0000
   4.600   1.5511   0.02174   0.00898  -0.2299   0.5879   1.0000  25.8107 160.0000
   4.700   1.5644   0.02180   0.00894  -0.2303   0.5868   1.0000  25.8694 160.0000
   4.800   1.5783   0.02188   0.00890  -0.2309   0.5857   1.0000  25.9273 160.0000
   4.900   1.5928   0.02202   0.00887  -0.2316   0.5846   1.0000  25.9864 160.0000
   5.000   1.5963   0.02225   0.00905  -0.2303   0.5830   1.0000  26.0738 160.0000
   5.100   1.5983   0.02249   0.00925  -0.2287   0.5811   1.0000  26.1743 160.0000
   5.200   1.6021   0.02271   0.00941  -0.2274   0.5792   1.0000  26.2736 160.0000
   5.300   1.6077   0.02289   0.00953  -0.2264   0.5774   1.0000  26.3687 160.0000
   5.400   1.6148   0.02303   0.00960  -0.2257   0.5757   1.0000  26.4584 160.0000
   5.500   1.6233   0.02314   0.00963  -0.2253   0.5742   1.0000  26.5426 160.0000
   5.600   1.6329   0.02322   0.00962  -0.2251   0.5727   1.0000  26.6218 160.0000
   5.700   1.6435   0.02328   0.00959  -0.2250   0.5713   1.0000  26.6957 160.0000
   5.800   1.6555   0.02331   0.00953  -0.2252   0.5700   1.0000  26.7641 160.0000
   5.900   1.6688   0.02334   0.00946  -0.2257   0.5688   1.0000  26.8282 160.0000
   6.000   1.6831   0.02337   0.00938  -0.2263   0.5676   1.0000  26.8908 160.0000
   6.100   1.6986   0.02342   0.00928  -0.2272   0.5664   1.0000  26.9539 160.0000
   6.200   1.7084   0.02360   0.00932  -0.2271   0.5649   1.0000  27.0328 160.0000
   6.300   1.7058   0.02389   0.00956  -0.2246   0.5628   1.0000  27.1475 160.0000
   6.400   1.7063   0.02414   0.00974  -0.2228   0.5607   1.0000  27.2626 160.0000
   6.500   1.7099   0.02434   0.00984  -0.2215   0.5587   1.0000  27.3706 160.0000
   6.600   1.7159   0.02447   0.00988  -0.2206   0.5568   1.0000  27.4709 160.0000
   6.700   1.7238   0.02455   0.00987  -0.2200   0.5551   1.0000  27.5639 160.0000
   6.800   1.7333   0.02460   0.00982  -0.2198   0.5535   1.0000  27.6496 160.0000
   6.900   1.7447   0.02461   0.00973  -0.2199   0.5521   1.0000  27.7284 160.0000
   7.000   1.7581   0.02459   0.00960  -0.2203   0.5507   1.0000  27.8025 160.0000
   7.100   1.7732   0.02456   0.00946  -0.2211   0.5494   1.0000  27.8737 160.0000
   7.200   1.7898   0.02455   0.00931  -0.2222   0.5481   1.0000  27.9431 160.0000
   7.300   1.8021   0.02467   0.00927  -0.2225   0.5466   1.0000  28.0240 160.0000
   7.400   1.7951   0.02502   0.00953  -0.2193   0.5443   1.0000  28.1484 160.0000
   7.500   1.7927   0.02531   0.00970  -0.2169   0.5421   1.0000  28.2727 160.0000
   7.600   1.7942   0.02551   0.00979  -0.2152   0.5400   1.0000  28.3890 160.0000
   7.700   1.7985   0.02564   0.00980  -0.2140   0.5380   1.0000  28.4952 160.0000
   7.800   1.8052   0.02571   0.00975  -0.2133   0.5362   1.0000  28.5928 160.0000
   7.900   1.8150   0.02571   0.00964  -0.2131   0.5346   1.0000  28.6835 160.0000
   8.000   1.8281   0.02567   0.00950  -0.2135   0.5331   1.0000  28.7681 160.0000
   8.100   1.8437   0.02561   0.00932  -0.2143   0.5316   1.0000  28.8478 160.0000
   8.200   1.8612   0.02554   0.00912  -0.2156   0.5302   1.0000  28.9256 160.0000
   8.300   1.8783   0.02555   0.00896  -0.2168   0.5287   1.0000  29.0091 160.0000
   8.400   1.8653   0.02596   0.00923  -0.2124   0.5264   1.0000  29.1366 160.0000
   8.500   1.8570   0.02630   0.00941  -0.2090   0.5241   1.0000  29.2647 160.0000
   8.600   1.8543   0.02656   0.00950  -0.2066   0.5219   1.0000  29.3883 160.0000
   8.700   1.8563   0.02672   0.00951  -0.2050   0.5198   1.0000  29.5040 160.0000
   8.800   1.8627   0.02678   0.00943  -0.2042   0.5179   1.0000  29.6113 160.0000
   8.900   1.8733   0.02674   0.00927  -0.2042   0.5161   1.0000  29.7103 160.0000
   9.000   1.8872   0.02665   0.00906  -0.2047   0.5145   1.0000  29.8031 160.0000
   9.100   1.9045   0.02651   0.00880  -0.2058   0.5129   1.0000  29.8930 160.0000
   9.200   1.9254   0.02638   0.00852  -0.2076   0.5112   1.0000  29.9838 160.0000
   9.300   1.9141   0.02683   0.00876  -0.2038   0.5090   1.0000  30.1086 160.0000
   9.400   1.9028   0.02731   0.00903  -0.2000   0.5066   1.0000  30.2489 160.0000
   9.500   1.8981   0.02767   0.00919  -0.1974   0.5042   1.0000  30.3857 160.0000
   9.600   1.8996   0.02787   0.00921  -0.1958   0.5019   1.0000  30.5140 160.0000
   9.700   1.9063   0.02793   0.00910  -0.1952   0.4999   1.0000  30.6324 160.0000
   9.800   1.9171   0.02787   0.00891  -0.1951   0.4979   1.0000  30.7414 160.0000
   9.900   1.9313   0.02773   0.00863  -0.1957   0.4961   1.0000  30.8441 160.0000
  10.000   1.9491   0.02754   0.00830  -0.1968   0.4944   1.0000  30.9447 160.0000
  10.100   1.9509   0.02779   0.00833  -0.1954   0.4923   1.0000  31.0660 160.0000
  10.200   1.9361   0.02849   0.00874  -0.1913   0.4896   1.0000  31.2182 160.0000
  10.300   1.9295   0.02900   0.00899  -0.1886   0.4870   1.0000  31.3702 160.0000
  10.400   1.9298   0.02928   0.00905  -0.1870   0.4845   1.0000  31.5134 160.0000
  10.500   1.9357   0.02938   0.00895  -0.1862   0.4822   1.0000  31.6458 160.0000
  10.600   1.9459   0.02932   0.00873  -0.1861   0.4801   1.0000  31.7683 160.0000
  10.700   1.9599   0.02915   0.00841  -0.1865   0.4781   1.0000  31.8827 160.0000
  10.800   1.9794   0.02887   0.00798  -0.1879   0.4761   1.0000  31.9976 160.0000
  10.900   1.9610   0.02983   0.00857  -0.1835   0.4734   1.0000  32.1581 160.0000
  11.000   1.9505   0.03060   0.00899  -0.1805   0.4704   1.0000  32.3277 160.0000
  11.100   1.9480   0.03107   0.00918  -0.1787   0.4677   1.0000  32.4897 160.0000
  11.200   1.9517   0.03128   0.00915  -0.1777   0.4651   1.0000  32.6389 160.0000
  11.300   1.9604   0.03128   0.00895  -0.1774   0.4627   1.0000  32.7765 160.0000
  11.400   1.9737   0.03110   0.00859  -0.1777   0.4605   1.0000  32.9060 160.0000
  11.500   1.9825   0.03117   0.00843  -0.1774   0.4581   1.0000  33.0486 160.0000
  11.600   1.9656   0.03235   0.00916  -0.1738   0.4550   1.0000  33.2321 160.0000
  11.700   1.9580   0.03317   0.00960  -0.1715   0.4518   1.0000  33.4166 160.0000
  11.800   1.9576   0.03364   0.00976  -0.1702   0.4489   1.0000  33.5889 160.0000
  11.900   1.9634   0.03380   0.00966  -0.1695   0.4462   1.0000  33.7465 160.0000
  12.000   1.9754   0.03365   0.00931  -0.1696   0.4437   1.0000  33.8925 160.0000
  12.100   1.9846   0.03370   0.00911  -0.1694   0.4410   1.0000  34.0486 160.0000
  12.200   1.9675   0.03514   0.01004  -0.1662   0.4376   1.0000  34.2508 160.0000
  12.300   1.9598   0.03613   0.01060  -0.1642   0.4342   1.0000  34.4528 160.0000
  12.400   1.9596   0.03669   0.01080  -0.1630   0.4310   1.0000  34.6397 160.0000
  12.500   1.9665   0.03681   0.01065  -0.1626   0.4282   1.0000  34.8091 160.0000
  12.600   1.9826   0.03640   0.01007  -0.1631   0.4254   1.0000  34.9695 160.0000
  12.700   1.9702   0.03779   0.01094  -0.1608   0.4220   1.0000  35.1753 160.0000
  12.800   1.9592   0.03915   0.01180  -0.1587   0.4182   1.0000  35.3993 160.0000
  12.900   1.9561   0.04000   0.01223  -0.1574   0.4147   1.0000  35.6089 160.0000
  13.000   1.9618   0.04023   0.01215  -0.1569   0.4115   1.0000  35.7980 160.0000
  13.100   1.9766   0.03984   0.01154  -0.1572   0.4085   1.0000  35.9754 160.0000
  13.200   1.9629   0.04153   0.01268  -0.1550   0.4046   1.0000  36.2037 160.0000
  13.300   1.9531   0.04301   0.01364  -0.1534   0.4006   1.0000  36.4454 160.0000
  13.400   1.9513   0.04388   0.01408  -0.1523   0.3969   1.0000  36.6674 160.0000
  13.500   1.9597   0.04392   0.01381  -0.1521   0.3935   1.0000  36.8674 160.0000
  13.600   1.9642   0.04432   0.01385  -0.1515   0.3900   1.0000  37.0752 160.0000
  13.700   1.9500   0.04631   0.01525  -0.1498   0.3857   1.0000  37.3345 160.0000
  13.800   1.9446   0.04758   0.01603  -0.1486   0.3815   1.0000  37.5835 160.0000
  13.900   1.9492   0.04796   0.01605  -0.1481   0.3778   1.0000  37.8069 160.0000
  14.000   1.9596   0.04783   0.01561  -0.1480   0.3743   1.0000  38.0161 160.0000
  14.100   1.9444   0.05010   0.01727  -0.1464   0.3698   1.0000  38.2865 160.0000
  14.200   1.9379   0.05159   0.01825  -0.1454   0.3654   1.0000  38.5522 160.0000
  14.300   1.9406   0.05219   0.01844  -0.1449   0.3614   1.0000  38.7927 160.0000
  14.400   1.9496   0.05217   0.01807  -0.1446   0.3577   1.0000  39.0169 160.0000
  14.500   1.9361   0.05445   0.01977  -0.1434   0.3530   1.0000  39.2981 160.0000
  14.600   1.9305   0.05597   0.02078  -0.1426   0.3485   1.0000  39.5728 160.0000
  14.700   1.9331   0.05660   0.02099  -0.1421   0.3443   1.0000  39.8221 160.0000
  14.800   1.9369   0.05712   0.02110  -0.1416   0.3404   1.0000  40.0640 160.0000
  14.900   1.9262   0.05928   0.02272  -0.1407   0.3356   1.0000  40.3539 160.0000
  15.000   1.9227   0.06064   0.02359  -0.1401   0.3310   1.0000  40.6329 160.0000
